2、CSEE-FS/MATLAB/ULF.m
function mpc = ULF
%   MATPOWER 

%% MATPOWER Case Format : Version 2 
mpc.version = '2';

%%-----  Power Flow Data  -----%% 
%% system MVA base
mpc.baseMVA = 100; 

%% bus data 
%	bus_i	type	Pd	Qd	Gs	Bs	area	Vm	Va	baseKV	zone	Vmax	Vmin
mpc.bus = [
    1    1    0    0    0    0        1    1.041816195322516    -1.918280883587016    1    1    1.06    0.94;
    2    1    0    0    0    0        1    1.040138950675477    -2.461824981812151    1    1    1.06    0.94;
    3    1    0    0    0    0        1    1.044120017639642    -1.656777057892255    1    1    1.06    0.94;
    4    1    0    0    0    0        1    1.042995950064763    -1.750519800760266    1    1    1.06    0.94;
    5    1    0    0    0    0        1    1.044968490665618    -1.769703605549105    1    1    1.06    0.94;
    6    1    0    0    0    0        1    1.043587350800856    -1.738418472118102    1    1    1.06    0.94;
    7    1    0    0    0    0        1    1.043441814320803    -2.653663054186279    1    1    1.06    0.94;
    8    1    0    0    0    450        1    1.040355577011393    -2.504183342961326    1    2    1.06    0.94;
    9    3    0    0    0    0        1    1    0    1    3    1.06    0.94;
    10    1    0    0    0    450        1    1.045188617632874    -1.811670961146848    1    2    1.06    0.94;
    11    3    0    0    0    0        1    1    0    1    3    1.06    0.94;
    12    1    0    0    0    440        1    1.043650192685717    -2.695754224851497    1    2    1.06    0.94;
    13    3    0    0    0    0        1    1    0    1    3    1.06    0.94;
    14    1    0    0    0    50        1    1.06716293171068    1.620329538746606    1    4    1.06    0.94;
    15    1    0    0    0    50        1    1.070899721938859    1.857210424570337    1    4    1.06    0.94;
    16    1    0    0    0    50        1    1.069569449109981    1.752741718831127    1    4    1.06    0.94;
    17    1    0    0    0    0        1    1.050810721908553    -1.063070648814538    1    4    1.06    0.94;
    18    1    0    0    0    0        1    1.054457974224218    -0.8075637238156759    1    4    1.06    0.94;
    19    1    0    0    0    0        1    1.053159417046712    -0.9186413048924449    1    4    1.06    0.94;
    20    1    0    0    0    0        1    1.046684870054309    -1.551782803534276    1    4    1.06    0.94;
    21    1    0    0    0    0        1    1.050317206043239    -1.292677443335641    1    4    1.06    0.94;
    22    1    0    0    0    0        1    1.04902395736722    -1.405031822769732    1    4    1.06    0.94;
    23    1    0    0    0    0        1    1.046684989320762    -1.551782830668344    1    4    1.06    0.94;
    24    1    0    0    0    0        1    1.050317444485182    -1.29267735309332    1    4    1.06    0.94;
    25    1    0    0    0    0        1    1.04902419580546    -1.405031706878335    1    4    1.06    0.94;
    26    1    0    0    0    0        1    1.046684989421645    -1.551783034516813    1    4    1.06    0.94;
    27    1    0    0    0    0        1    1.050317444569223    -1.292677556259603    1    4    1.06    0.94;
    28    1    0    0    0    0        1    1.049024195896804    -1.40503191028569    1    4    1.06    0.94;
    29    1    0    0    0    0        1    1.046684989421645    -1.551783034516813    1    4    1.06    0.94;
    30    1    0    0    0    0        1    1.050317444569223    -1.292677556259603    1    4    1.06    0.94;
    31    1    0    0    0    0        1    1.049024195896804    -1.40503191028569    1    4    1.06    0.94;
    32    1    0    0    0    0        1    1.050317444569223    -1.292677556259603    1    4    1.06    0.94;
    33    1    0    0    0    0        1    1.050317444569223    -1.292677556259603    1    4    1.06    0.94;
    34    1    0    0    0    0        1    1.050810841131881    -1.063070629765163    1    4    1.06    0.94;
    35    1    0    0    0    0        1    1.054457974237344    -0.807563774415656    1    4    1.06    0.94;
    36    1    0    0    0    0        1    1.05315953624068    -0.9186412009140049    1    4    1.06    0.94;
    37    1    0    0    0    0        1    1.046684989270321    -1.551782728744109    1    4    1.06    0.94;
    38    1    0    0    0    0        1    1.05031732526421    -1.292677398214475    1    4    1.06    0.94;
    39    1    0    0    0    0        1    1.04902407658634    -1.405031764824027    1    4    1.06    0.94;
    40    1    0    0    0    0        1    1.046684989371204    -1.551782932592579    1    4    1.06    0.94;
    41    1    0    0    0    0        1    1.050317325348251    -1.292677601380781    1    4    1.06    0.94;
    42    1    0    0    0    0        1    1.049024076677684    -1.405031968231406    1    4    1.06    0.94;
    43    1    0    0    0    0        1    1.050317325348251    -1.292677601380781    1    4    1.06    0.94;
    44    1    0    0    0    0        1    1.046355056977485    -1.549211623810174    1    4    1.06    0.94;
    45    1    0    0    0    0        1    1.049986207785916    -1.290106278821154    1    4    1.06    0.94;
    46    1    0    0    0    0        1    1.048693449011347    -1.402460517739545    1    4    1.06    0.94;
    47    1    0    0    0    0        1    1.046836318761313    -1.50704165586323    1    4    1.06    0.94;
    48    1    0    0    0    0        1    1.046836318761313    -1.50704165586323    1    4    1.06    0.94;
    49    1    0    0    0    20        1    1.052080685969863    -1.510179190539809    1    4    1.06    0.94;
    50    1    0    0    0    15        1    1.054558657159801    -1.250300731554348    1    4    1.06    0.94;
    51    1    0    0    0    20        1    1.055879411946447    -1.251087969714022    1    4    1.06    0.94;
    52    1    0    0    0    0        1    1.050616196709319    -1.247950353440776    1    4    1.06    0.94;
    53    1    0    0    0    0        1    1.049083758998162    -1.360652942772952    1    4    1.06    0.94;
    54    1    0    0    0    5        1    1.050392671112011    -1.361434433534373    1    4    1.06    0.94;
    55    1    0    0    0    0        1    1.049083758998162    -1.360652942772952    1    4    1.06    0.94;
    56    1    300    140    0    0        1    1.017674522198479    -5.046241749937219    1    1    1.06    0.94;
    57    1    300    100    0    0        1    1.023753070583608    -5.57902342243027    1    1    1.06    0.94;
    58    1    300    110    0    0        1    1.025911986242436    -4.754845627644708    1    1    1.06    0.94;
    59    1    329.1    78    0    0        1    1.0305727318476    -5.140575720360127    1    1    1.06    0.94;
    60    1    300    70    0    0        1    1.034473744727556    -4.842381099926686    1    1    1.06    0.94;
    61    1    323    79    0    0        1    1.030914181454955    -5.978134691049398    1    1    1.06    0.94;
    62    1    0    0    0    20        1    1.02332930169597    -5.405026308115985    1    4    1.06    0.94;
    63    1    0    0    0    20        1    1.030301176104959    -5.932237954999279    1    4    1.06    0.94;
    64    1    0    0    0    20        1    1.032275566830426    -5.1069367139231    1    4    1.06    0.94;
    65    1    0    0    0    20        1    1.03765939714428    -5.521457047242697    1    4    1.06    0.94;
    66    1    0    0    0    20        1    1.041743690182773    -5.18740609481591    1    4    1.06    0.94;
    67    1    0    0    0    20        1    1.037979844825044    -6.351886718244361    1    4    1.06    0.94;
    68    1    0    0    0    0        1    0.9192886288914318    -4.117360334030956    1    5    1.06    0.94;
    69    1    0    0    0    0        1    0.9707832277296283    1.480758401143891    1    5    1.06    0.94;
    70    1    0    0    0    0        1    0.9192886020762476    -3.4248478790618    1    5    1.06    0.94;
    71    1    0    0    0    0        1    0.9707832277296283    1.480758401143891    1    5    1.06    0.94;
    72    1    0    0    0    0        1    0.9192886007842132    -4.308931153597874    1    5    1.06    0.94;
    73    1    0    0    0    0        1    0.9707832277296283    1.480758401143891    1    5    1.06    0.94;
    74    1    0    0    0    0        1    0.9192886288914318    -4.117360334030956    1    5    1.06    0.94;
    75    1    0    0    0    450        1    1.000168161527217    0.0454622864351792    1    2    1.06    0.94;
    76    1    0    0    0    0        1    0.9707832277296283    1.480758401143891    1    5    1.06    0.94;
    77    1    0    0    0    0        1    0.9192886020762476    -3.4248478790618    1    5    1.06    0.94;
    78    1    0    0    0    450        1    1.000168161527217    0.0454622864351792    1    2    1.06    0.94;
    79    1    0    0    0    0        1    0.9707832277296283    1.480758401143891    1    5    1.06    0.94;
    80    1    0    0    0    0        1    0.9192886007842132    -4.308931153597874    1    5    1.06    0.94;
    81    1    0    0    0    450        1    1.000168161527217    0.0454622864351792    1    2    1.06    0.94;
    82    1    0    0    0    0        1    0.9707832277296283    1.480758401143891    1    5    1.06    0.94;
    83    2    0    0    0    0        1    1.042013372711974    0.3285540540165814    1    1    1.06    0.94;
    84    3    0    0    0    0        1    1    0    1    1    1.06    0.94;
    85    2    0    0    0    0        1    1.043421499640505    2.263267307192323    1    1    1.06    0.94;
    86    2    0    0    0    0        1    1.0429944333093    1.052608213880535    1    1    1.06    0.94;
    87    2    0    0    0    0        1    1.044274577294966    2.143948423257283    1    1    1.06    0.94;
    88    2    0    0    0    0        1    1.042885949870634    2.185647368920252    1    1    1.06    0.94;
    89    2    0    0    0    0        1    1.043641132657624    -0.4138308436094508    1    1    1.06    0.94;
    90    1    0    0    0    0        1    1.046684989320762    -1.551782830668344    1    4    1.06    0.94;
    91    1    0    0    0    0        1    1.046684989421645    -1.551783034516813    1    4    1.06    0.94;
    92    1    0    0    0    0        1    1.046684989421645    -1.551783034516813    1    4    1.06    0.94;
    93    1    0    0    0    0        1    1.050317444485182    -1.29267735309332    1    4    1.06    0.94;
    94    1    0    0    0    0        1    1.050317444569223    -1.292677556259603    1    4    1.06    0.94;
    95    1    0    0    0    0        1    1.050317444569223    -1.292677556259603    1    4    1.06    0.94;
    96    1    0    0    0    0        1    1.050317444569223    -1.292677556259603    1    4    1.06    0.94;
    97    1    0    0    0    0        1    1.050317444569223    -1.292677556259603    1    4    1.06    0.94;
    98    1    0    0    0    0        1    1.04902419580546    -1.405031706878335    1    4    1.06    0.94;
    99    1    0    0    0    0        1    1.049024195896804    -1.40503191028569    1    4    1.06    0.94;
    100    1    0    0    0    0        1    1.049024195896804    -1.40503191028569    1    4    1.06    0.94;
    101    1    0    0    0    0        1    1.046836318761313    -1.50704165586323    1    4    1.06    0.94;
    102    1    0    0    0    0        1    1.046836318761313    -1.50704165586323    1    4    1.06    0.94;
    103    1    0    0    0    0        1    1.046466748791331    -1.507759882383007    1    4    1.06    0.94;
    104    1    0    0    0    0        1    1.05033834967138    -1.248488566075164    1    4    1.06    0.94;
    105    1    0    0    0    0        1    1.050245177861817    -1.248668762658739    1    4    1.06    0.94;
    106    1    0    0    0    0        1    1.050616196709319    -1.247950353440776    1    4    1.06    0.94;
    107    1    0    0    0    0        1    1.049083758998162    -1.360652942772952    1    4    1.06    0.94;
    108    1    0    0    0    0        1    1.048991423684227    -1.360832165402998    1    4    1.06    0.94;
    109    1    0    0    0    0        1    1.049083758998162    -1.360652942772952    1    4    1.06    0.94;
    110    1    0    0    0    0        1    1.014952295604942    -5.399595902676512    1    4    1.06    0.94;
    111    1    0    0    0    0        1    1.021867141008084    -5.926807109492913    1    4    1.06    0.94;
    112    1    0    0    0    0        1    1.023825319557976    -5.101506585447879    1    4    1.06    0.94;
    113    1    0    0    0    0        1    1.029165103865132    -5.516026865596738    1    4    1.06    0.94;
    114    1    0    0    0    0        1    1.033215907942443    -5.181975837964211    1    4    1.06    0.94;
    115    1    0    0    0    0        1    1.029482836914538    -6.346456965533969    1    4    1.06    0.94;
    116    1    0    0    0    0        1    1.066860863808251    2.983763468911783    1    4    1.06    0.94;
    117    1    0    0    0    0        1    1.050810721908553    -1.063070648814538    1    4    1.06    0.94;
    118    1    0    0    0    0        1    1.046684870054309    -1.551782803534276    1    4    1.06    0.94;
    119    1    0    0    0    0        1    1.070600854467799    3.211138444017327    1    4    1.06    0.94;
    120    1    0    0    0    0        1    1.054457974224218    -0.8075637238156759    1    4    1.06    0.94;
    121    1    0    0    0    0        1    1.050317206043239    -1.292677443335641    1    4    1.06    0.94;
    122    1    0    0    0    0        1    1.069269271223891    3.110043053523096    1    4    1.06    0.94;
    123    1    0    0    0    0        1    1.053159417046712    -0.9186413048924449    1    4    1.06    0.94;
    124    1    0    0    0    0        1    1.04902395736722    -1.405031822769732    1    4    1.06    0.94;
];
%% generator data
%	bus	Pg	Qg	Qmax	Qmin	Vg	mBase	status	Pmax	Pmin	Pc1	Pc2	Qc1min	Qc1max	Qc2min	Qc2max	ramp_agc	ramp_10	ramp_30	ramp_q	apf
mpc.gen = [
  9  -793.6  -167.8711  9999  -9999  1  100  1  9999  0   0 0 0 0 0 0 0 0 0 0 0;
  11  -793.6  -167.8711  9999  -9999  1  100  1  9999  0   0 0 0 0 0 0 0 0 0 0 0;
  13  -793.6  -167.8711  9999  -9999  1  100  1  9999  0   0 0 0 0 0 0 0 0 0 0 0;
  83  400  0  300  0  1.042013372711974  100  1  600  0   0 0 0 0 0 0 0 0 0 0 0;
  84  410.6614  -378.2585  9999  -9999  1  100  1  600  0   0 0 0 0 0 0 0 0 0 0 0;
  85  700  0  600  0  1.043421499640505  100  1  1000  0   0 0 0 0 0 0 0 0 0 0 0;
  86  500  0  300  0  1.0429944333093  100  1  600  0   0 0 0 0 0 0 0 0 0 0 0;
  87  700  0  600  0  1.044274577294966  100  1  1000  0   0 0 0 0 0 0 0 0 0 0 0;
  88  700  0  500  0  1.042885949870634  100  1  1000  0   0 0 0 0 0 0 0 0 0 0 0;
  89  400  0  250  0  1.043641132657624  100  1  600  0   0 0 0 0 0 0 0 0 0 0 0;
  116  150  0  0  0  1.066860863808251  100  1  350  0   0 0 0 0 0 0 0 0 0 0 0;
  119  150  0  0  0  1.070600854467799  100  1  350  0   0 0 0 0 0 0 0 0 0 0 0;
  122  150  0  0  0  1.069269271223891  100  1  350  0   0 0 0 0 0 0 0 0 0 0 0;
68    -400    -118.3313064575195    9999  -9999  1  100  1  -9999  0   0 0 0 0 0 0 0 0 0 0 0;
69    396.8000183105469    -129.5991668701172    9999  -9999  1  100  1  -9999  0   0 0 0 0 0 0 0 0 0 0 0;
70    -400    -118.3313980102539    9999  -9999  1  100  1  -9999  0   0 0 0 0 0 0 0 0 0 0 0;
71    396.8000183105469    -129.5991668701172    9999  -9999  1  100  1  -9999  0   0 0 0 0 0 0 0 0 0 0 0;
72    -400    -118.3313064575195    9999  -9999  1  100  1  -9999  0   0 0 0 0 0 0 0 0 0 0 0;
73    396.8000183105469    -129.5991668701172    9999  -9999  1  100  1  -9999  0   0 0 0 0 0 0 0 0 0 0 0;
74    -400    -118.3313064575195    9999  -9999  1.042013372711974  100  1  -9999  0   0 0 0 0 0 0 0 0 0 0 0;
76    396.8000183105469    -129.5991668701172    9999  -9999  1.042013372711974  100  1  -9999  0   0 0 0 0 0 0 0 0 0 0 0;
77    -400    -118.3313980102539    9999  -9999  1  100  1  -9999  0   0 0 0 0 0 0 0 0 0 0 0;
79    396.8000183105469    -129.5991668701172    9999  -9999  1  100  1  -9999  0   0 0 0 0 0 0 0 0 0 0 0;
80    -400    -118.3313980102539    9999  -9999  1.043421499640505  100  1  -9999  0   0 0 0 0 0 0 0 0 0 0 0;
82    396.8000183105469    -129.5991668701172    9999  -9999  1.043421499640505  100  1  -9999  0   0 0 0 0 0 0 0 0 0 0 0;
];
%% branch data
%	fbus	tbus	r	x	b	rateA	rateB	rateC	ratio	angle	status	angmin	angmax   
mpc.branch = [
  1  2  5e-05  0.00168  0.07575999999999999  0  0  0  0    0  1  -360  360  ;
  1  3  0.00025  0.00158  0.3994  0  0  0  0    0  1  -360  360  ;
  1  4  0.0007  0.0092  0.20318  0  0  0  0    0  1  -360  360  ;
  2  4  0.00057  0.007990000000000001  0.89244  0  0  0  0    0  1  -360  360  ;
  2  7  0.00025  0.00358  0.3994  0  0  0  0    0  1  -360  360  ;
  3  5  6.999999999999999e-05  0.00095  0.00358  0  0  0  0    0  1  -360  360  ;
  4  6  0.00011  0.00153  0.00574  0  0  0  0    0  1  -360  360  ;
  4  6  0.00011  0.00153  0.00574  0  0  0  0    0  1  -360  360  ;
  5  6  5e-05  0.00166  0.0025  0  0  0  0    0  1  -360  360  ;
  6  7  0.0004  0.0055  0.0204  0  0  0  0    0  1  -360  360  ;
  6  7  0.0004  0.0055  0.0204  0  0  0  0    0  1  -360  360  ;
  8  2  0  0.0001  0  0  0  0  0    0  1  -360  360  ;
  10  5  0  0.0001  0  0  0  0  0    0  1  -360  360  ;
  12  7  0  0.0001  0  0  0  0  0    0  1  -360  360  ;
  34  44  0.00186  0.01307  0.04824  1596  1596  1596  0    0  1  -360  360  ;
  34  44  0.00186  0.01307  0.04824  1596  1596  1596  0    0  1  -360  360  ;
  35  45  0.00186  0.01307  0.04824  1596  1596  1596  0    0  1  -360  360  ;
  35  45  0.00186  0.01307  0.04824  1596  1596  1596  0    0  1  -360  360  ;
  36  46  0.00186  0.01307  0.04824  1596  1596  1596  0    0  1  -360  360  ;
  36  46  0.00186  0.01307  0.04824  1596  1596  1596  0    0  1  -360  360  ;
  37  44  0.00186  0.01307  0.04824  1596  1596  1596  0    0  1  -360  360  ;
  37  44  0.00186  0.01307  0.04824  1596  1596  1596  0    0  1  -360  360  ;
  38  45  0.00186  0.01307  0.04824  1596  1596  1596  0    0  1  -360  360  ;
  38  45  0.00186  0.01307  0.04824  1596  1596  1596  0    0  1  -360  360  ;
  39  46  0.00186  0.01307  0.04824  1596  1596  1596  0    0  1  -360  360  ;
  39  46  0.00186  0.01307  0.04824  1596  1596  1596  0    0  1  -360  360  ;
  40  44  0.00186  0.01307  0.04824  1596  1596  1596  0    0  1  -360  360  ;
  40  44  0.00186  0.01307  0.04824  1596  1596  1596  0    0  1  -360  360  ;
  41  45  0.00186  0.01307  0.04824  1596  1596  1596  0    0  1  -360  360  ;
  41  45  0.00186  0.01307  0.04824  1596  1596  1596  0    0  1  -360  360  ;
  42  46  0.00186  0.01307  0.04824  1596  1596  1596  0    0  1  -360  360  ;
  42  46  0.00186  0.01307  0.04824  1596  1596  1596  0    0  1  -360  360  ;
  43  45  0.00186  0.01307  0.04824  1596  1596  1596  0    0  1  -360  360  ;
  43  45  0.00186  0.01307  0.04824  1596  1596  1596  0    0  1  -360  360  ;
  75  9  0  0.0001  0  0  0  0  0    0  1  -360  360  ;
  78  11  0  0.0001  0  0  0  0  0    0  1  -360  360  ;
  81  13  0  0.0001  0  0  0  0  0    0  1  -360  360  ;
  1  110  8.000000000000001e-05  0.02143    0    1000  1000  1000  1    0  1  -360  360  
  2  111  8.000000000000001e-05  0.02143    0    1000  1000  1000  1    0  1  -360  360  
  3  112  8.000000000000001e-05  0.02143    0    1000  1000  1000  1    0  1  -360  360  
  4  113  8.000000000000001e-05  0.02143    0    1000  1000  1000  1    0  1  -360  360  
  5  114  8.000000000000001e-05  0.02143    0    1000  1000  1000  1    0  1  -360  360  
  7  115  8.000000000000001e-05  0.02143    0    1000  1000  1000  1    0  1  -360  360  
  8  68  0  0.006    0    3000  3000  3000  1.121823149181524    0  1  -360  360  
  8  74  0  0.006    0    3000  3000  3000  1.121823149181524    0  1  -360  360  
  10  70  0  0.006    0    3000  3000  3000  1.127034621465714    0  1  -360  360  
  10  77  0  0.006    0    3000  3000  3000  1.127034621465714    0  1  -360  360  
  12  72  0  0.006    0    3000  3000  3000  1.125375744047619    0  1  -360  360  
  12  80  0  0.006    0    3000  3000  3000  1.125375627790095    0  1  -360  360  
  14  34  0  0.035    0    350  350  350  1    0  1  -360  360  
  15  35  0  0.035    0    350  350  350  1    0  1  -360  360  
  16  36  0  0.035    0    350  350  350  1    0  1  -360  360  
  17  34  0  0.035    0    350  350  350  1    0  1  -360  360  
  18  35  0  0.035    0    350  350  350  1    0  1  -360  360  
  19  36  0  0.035    0    350  350  350  1    0  1  -360  360  
  20  37  0  0.035    0    350  350  350  1    0  1  -360  360  
  21  38  0  0.035    0    350  350  350  1    0  1  -360  360  
  22  39  0  0.035    0    350  350  350  1    0  1  -360  360  
  23  37  0  0.035    0    350  350  350  1    0  1  -360  360  
  24  38  0  0.035    0    350  350  350  1    0  1  -360  360  
  25  39  0  0.035    0    350  350  350  1    0  1  -360  360  
  26  40  0  0.035    0    350  350  350  1    0  1  -360  360  
  27  41  0  0.035    0    350  350  350  1    0  1  -360  360  
  28  42  0  0.035    0    350  350  350  1    0  1  -360  360  
  29  40  0  0.035    0    350  350  350  1    0  1  -360  360  
  30  41  0  0.035    0    350  350  350  1    0  1  -360  360  
  31  42  0  0.035    0    350  350  350  1    0  1  -360  360  
  32  43  0  0.035    0    350  350  350  1    0  1  -360  360  
  33  43  0  0.035    0    350  350  350  1    0  1  -360  360  
  56  110  5e-05  -0.0021    0    1000  1000  1000  1    0  1  -360  360  
  57  111  5e-05  -0.0021    0    1000  1000  1000  1    0  1  -360  360  
  58  112  5e-05  -0.0021    0    1000  1000  1000  1    0  1  -360  360  
  59  113  5e-05  -0.0021    0    1000  1000  1000  1    0  1  -360  360  
  60  114  5e-05  -0.0021    0    1000  1000  1000  1    0  1  -360  360  
  61  115  5e-05  -0.0021    0    1000  1000  1000  1    0  1  -360  360  
  62  110  0.00047  0.04093    0    300  300  300  1    0  1  -360  360  
  63  111  0.00047  0.04093    0    300  300  300  1    0  1  -360  360  
  64  112  0.00047  0.04093    0    300  300  300  1    0  1  -360  360  
  65  113  0.00047  0.04093    0    300  300  300  1    0  1  -360  360  
  66  114  0.00047  0.04093    0    300  300  300  1    0  1  -360  360  
  67  115  0.00047  0.04093    0    300  300  300  1    0  1  -360  360  
  75  69  0  0.006    0    3000  3000  3000  1.021517508370476    0  1  -360  360  
  75  76  0  0.006    0    3000  3000  3000  1.021517508370476    0  1  -360  360  
  78  71  0  0.006    0    3000  3000  3000  1.021517508370476    0  1  -360  360  
  78  79  0  0.006    0    3000  3000  3000  1.021517508370476    0  1  -360  360  
  81  73  0  0.006    0    3000  3000  3000  1.021517508370476    0  1  -360  360  
  81  82  0  0.006    0    3000  3000  3000  1.021517508370476    0  1  -360  360  
  83  1  0.00026  0.01064    0    780  780  780  1    0  1  -360  360  
  84  2  0.00026  0.01064    0    780  780  780  1    0  1  -360  360  
  85  3  0.00026  0.01064    0    1400  1400  1400  1    0  1  -360  360  
  86  4  0.00026  0.01064    0    780  780  780  1    0  1  -360  360  
  87  5  0.00026  0.01064    0    1400  1400  1400  1    0  1  -360  360  
  88  6  0.00026  0.01064    0    1400  1400  1400  1    0  1  -360  360  
  89  7  0.00026  0.01064    0    780  780  780  1    0  1  -360  360  
  90  23  0  0.02167    0    350  350  350  1.000000015    0  1  -360  360  
  91  26  0  0.02167    0    350  350  350  1.000000015    0  1  -360  360  
  92  29  0  0.02167    0    350  350  350  1.000000015    0  1  -360  360  
  93  24  0  0.02167    0    350  350  350  1.000000015    0  1  -360  360  
  94  27  0  0.02167    0    350  350  350  1.000000015    0  1  -360  360  
  95  30  0  0.02167    0    350  350  350  1.000000015    0  1  -360  360  
  96  32  0  0.02167    0    350  350  350  1.000000015    0  1  -360  360  
  97  33  0  0.02167    0    350  350  350  1.000000015    0  1  -360  360  
  98  25  0  0.02167    0    350  350  350  1.000000015    0  1  -360  360  
  99  28  0  0.02167    0    350  350  350  1.000000015    0  1  -360  360  
  100  31  0  0.02167    0    350  350  350  1.000000015    0  1  -360  360  
  101  1  5e-05  0.0157    0    1000  1000  1000  1    0  1  -360  360  
  101  44  5e-05  -0.00158    0    1000  1000  1000  1    0  1  -360  360  
  101  47  0.00021  0.02668    0    360  360  360  1    0  1  -360  360  
  102  1  5e-05  0.0157    0    1000  1000  1000  1    0  1  -360  360  
  102  44  5e-05  -0.00158    0    1000  1000  1000  1    0  1  -360  360  
  102  48  0.00021  0.02668    0    360  360  360  1    0  1  -360  360  
  103  1  5e-05  0.0157    0    1000  1000  1000  1    0  1  -360  360  
  103  44  5e-05  -0.00158    0    1000  1000  1000  1    0  1  -360  360  
  103  49  0.00021  0.02668    0    360  360  360  1    0  1  -360  360  
  104  3  5e-05  0.0157    0    1000  1000  1000  1    0  1  -360  360  
  104  45  5e-05  -0.00158    0    1000  1000  1000  1    0  1  -360  360  
  104  50  0.00021  0.02668    0    360  360  360  1    0  1  -360  360  
  105  3  5e-05  0.0157    0    1000  1000  1000  1    0  1  -360  360  
  105  45  5e-05  -0.00158    0    1000  1000  1000  1    0  1  -360  360  
  105  51  0.00021  0.02668    0    360  360  360  1    0  1  -360  360  
  106  3  5e-05  0.0157    0    1000  1000  1000  1    0  1  -360  360  
  106  45  5e-05  -0.00158    0    1000  1000  1000  1    0  1  -360  360  
  106  52  0.00021  0.02668    0    360  360  360  1    0  1  -360  360  
  107  5  5e-05  0.0157    0    1000  1000  1000  1    0  1  -360  360  
  107  46  5e-05  -0.00158    0    1000  1000  1000  1    0  1  -360  360  
  107  53  0.00021  0.02668    0    360  360  360  1    0  1  -360  360  
  108  5  5e-05  0.0157    0    1000  1000  1000  1    0  1  -360  360  
  108  46  5e-05  -0.00158    0    1000  1000  1000  1    0  1  -360  360  
  108  54  0.00021  0.02668    0    360  360  360  1    0  1  -360  360  
  109  5  5e-05  0.0157    0    1000  1000  1000  1    0  1  -360  360  
  109  46  5e-05  -0.00158    0    1000  1000  1000  1    0  1  -360  360  
  109  55  0.00021  0.02668    0    360  360  360  1    0  1  -360  360  
  116  14  0  0.01806    0    350  350  350  0.9999999965217392    0  1  -360  360  
  117  17  0  0.01806    0    350  350  350  0.9999999965217392    0  1  -360  360  
  118  20  0  0.01806    0    350  350  350  0.9999999965217392    0  1  -360  360  
  119  15  0  0.01806    0    350  350  350  0.9999999965217392    0  1  -360  360  
  120  18  0  0.01806    0    350  350  350  0.9999999965217392    0  1  -360  360  
  121  21  0  0.01806    0    350  350  350  0.9999999965217392    0  1  -360  360  
  122  16  0  0.01806    0    350  350  350  0.9999999965217392    0  1  -360  360  
  123  19  0  0.01806    0    350  350  350  0.9999999965217392    0  1  -360  360  
  124  22  0  0.01806    0    350  350  350  0.9999999965217392    0  1  -360  360  
];
%% busmap data
%	busname  bus_no 
mpc.map = {
'B01525.00',1;
'B02525.00',2;
'B03525.00',3;
'B04525.00',4;
'B05525.00',5;
'B06525.00',6;
'B07525.00',7;
'B08525.00',8;
'B09525.00',9;
'B10525.00',10;
'B11525.00',11;
'B12525.00',12;
'B13525.00',13;
'B1438.50',14;
'B1538.50',15;
'B1638.50',16;
'B1738.50',17;
'B1838.50',18;
'B1938.50',19;
'B2038.50',20;
'B2138.50',21;
'B2238.50',22;
'B2338.50',23;
'B2438.50',24;
'B2538.50',25;
'B2638.50',26;
'B2738.50',27;
'B2838.50',28;
'B2938.50',29;
'B3038.50',30;
'B3138.50',31;
'B3238.50',32;
'B3338.50',33;
'B34230.00',34;
'B35230.00',35;
'B36230.00',36;
'B37230.00',37;
'B38230.00',38;
'B39230.00',39;
'B40230.00',40;
'B41230.00',41;
'B42230.00',42;
'B43230.00',43;
'B44230.00',44;
'B45230.00',45;
'B46230.00',46;
'B4737.00',47;
'B4837.00',48;
'B4937.00',49;
'B5037.00',50;
'B5137.00',51;
'B5237.00',52;
'B5337.00',53;
'B5437.00',54;
'B5537.00',55;
'B56230.00',56;
'B57230.00',57;
'B58230.00',58;
'B59230.00',59;
'B60230.00',60;
'B61230.00',61;
'B6237.00',62;
'B6337.00',63;
'B6437.00',64;
'B6537.00',65;
'B6637.00',66;
'B6737.00',67;
'DN01-1210.00',68;
'DN02-1199.00',69;
'DN03-1210.00',70;
'DN04-1199.00',71;
'DN05-1210.00',72;
'DN06-1199.00',73;
'DP01-1210.00',74;
'DP02-1199.00',76;
'DP02525.00',75;
'DP03-1210.00',77;
'DP04-1199.00',79;
'DP04525.00',78;
'DP05-1210.00',80;
'DP06-1199.00',82;
'DP06525.00',81;
'HP0120.00',83;
'HP0220.00',84;
'HP0320.00',85;
'HP0420.00',86;
'HP0520.00',87;
'HP0620.00',88;
'HP0720.00',89;
'PV01-10.40',90;
'PV01-20.40',91;
'PV01-30.40',92;
'PV03-10.40',93;
'PV03-20.40',94;
'PV03-30.40',95;
'PV03-40.40',96;
'PV03-50.40',97;
'PV05-10.40',98;
'PV05-20.40',99;
'PV05-30.40',100;
'T3-011.00',101;
'T3-021.00',102;
'T3-031.00',103;
'T3-041.00',104;
'T3-051.00',105;
'T3-061.00',106;
'T3-071.00',107;
'T3-081.00',108;
'T3-091.00',109;
'T3-101.00',110;
'T3-111.00',111;
'T3-121.00',112;
'T3-131.00',113;
'T3-141.00',114;
'T3-151.00',115;
'WT01-10.69',116;
'WT01-20.69',117;
'WT01-30.69',118;
'WT03-10.69',119;
'WT03-20.69',120;
'WT03-30.69',121;
'WT05-10.69',122;
'WT05-20.69',123;
'WT05-30.69',124;
};
%% busmap data
%	busname  bus_no 
mpc.zonemap = {
'0',5;
'1A',2;
'1B',1;
'D',3;
'FH',4;
};
